testcases/gridlabd/BU0001/BU0001_glmfile_loads.glm
schedule load_shape_A {
	// weekday-summer
0-29	0	*	4-9	1-5	0.440866625	;
30-59	0	*	4-9	1-5	0.406746746	;
0-29	1	*	4-9	1-5	0.390637184	;
30-59	1	*	4-9	1-5	0.385388549	;
0-29	2	*	4-9	1-5	0.385463529	;
30-59	2	*	4-9	1-5	0.386348299	;
0-29	3	*	4-9	1-5	0.386314558	;
30-59	3	*	4-9	1-5	0.377912993	;
0-29	4	*	4-9	1-5	0.381122158	;
30-59	4	*	4-9	1-5	0.377005729	;
0-29	5	*	4-9	1-5	0.383611511	;
30-59	5	*	4-9	1-5	0.389684932	;
0-29	6	*	4-9	1-5	0.401959241	;
30-59	6	*	4-9	1-5	0.410150861	;
0-29	7	*	4-9	1-5	0.429698278	;
30-59	7	*	4-9	1-5	0.464339272	;
0-29	8	*	4-9	1-5	0.50346035	;
30-59	8	*	4-9	1-5	0.510767201	;
0-29	9	*	4-9	1-5	0.53242157	;
30-59	9	*	4-9	1-5	0.543098794	;
0-29	10	*	4-9	1-5	0.528642553	;
30-59	10	*	4-9	1-5	0.567617419	;
0-29	11	*	4-9	1-5	0.584319327	;
30-59	11	*	4-9	1-5	0.615188801	;
0-29	12	*	4-9	1-5	0.621888309	;
30-59	12	*	4-9	1-5	0.615237538	;
0-29	13	*	4-9	1-5	0.622994271	;
30-59	13	*	4-9	1-5	0.583445804	;
0-29	14	*	4-9	1-5	0.571617629	;
30-59	14	*	4-9	1-5	0.582902195	;
0-29	15	*	4-9	1-5	0.583839452	;
30-59	15	*	4-9	1-5	0.574740567	;
0-29	16	*	4-9	1-5	0.565667926	;
30-59	16	*	4-9	1-5	0.544950813	;
0-29	17	*	4-9	1-5	0.540050837	;
30-59	17	*	4-9	1-5	0.557157639	;
0-29	18	*	4-9	1-5	0.564550717	;
30-59	18	*	4-9	1-5	0.590317767	;
0-29	19	*	4-9	1-5	0.57834713	;
30-59	19	*	4-9	1-5	0.544006058	;
0-29	20	*	4-9	1-5	0.572978526	;
30-59	20	*	4-9	1-5	0.612935637	;
0-29	21	*	4-9	1-5	0.605103923	;
30-59	21	*	4-9	1-5	0.578583318	;
0-29	22	*	4-9	1-5	0.549374663	;
30-59	22	*	4-9	1-5	0.50780922	;
0-29	23	*	4-9	1-5	0.476133705	;
30-59	23	*	4-9	1-5	0.458404565	;
}


schedule load_shape_B {
	// weekday-summer
0-29	0	*	4-9	1-5	0.477442115	;
30-59	0	*	4-9	1-5	0.442100054	;
0-29	1	*	4-9	1-5	0.4228863	;
30-59	1	*	4-9	1-5	0.414679683	;
0-29	2	*	4-9	1-5	0.412580229	;
30-59	2	*	4-9	1-5	0.405779497	;
0-29	3	*	4-9	1-5	0.398753824	;
30-59	3	*	4-9	1-5	0.400088477	;
0-29	4	*	4-9	1-5	0.412104103	;
30-59	4	*	4-9	1-5	0.413165077	;
0-29	5	*	4-9	1-5	0.415661928	;
30-59	5	*	4-9	1-5	0.416486713	;
0-29	6	*	4-9	1-5	0.441125307	;
30-59	6	*	4-9	1-5	0.458659499	;
0-29	7	*	4-9	1-5	0.503996461	;
30-59	7	*	4-9	1-5	0.533148881	;
0-29	8	*	4-9	1-5	0.557881201	;
30-59	8	*	4-9	1-5	0.57050042	;
0-29	9	*	4-9	1-5	0.596503659	;
30-59	9	*	4-9	1-5	0.633262852	;
0-29	10	*	4-9	1-5	0.641881861	;
30-59	10	*	4-9	1-5	0.640719663	;
0-29	11	*	4-9	1-5	0.654294883	;
30-59	11	*	4-9	1-5	0.636400786	;
0-29	12	*	4-9	1-5	0.636591986	;
30-59	12	*	4-9	1-5	0.594374213	;
0-29	13	*	4-9	1-5	0.576180193	;
30-59	13	*	4-9	1-5	0.583142133	;
0-29	14	*	4-9	1-5	0.585395297	;
30-59	14	*	4-9	1-5	0.583876942	;
0-29	15	*	4-9	1-5	0.558286096	;
30-59	15	*	4-9	1-5	0.564711925	;
0-29	16	*	4-9	1-5	0.56949943	;
30-59	16	*	4-9	1-5	0.579872983	;
0-29	17	*	4-9	1-5	0.57899946	;
30-59	17	*	4-9	1-5	0.608496791	;
0-29	18	*	4-9	1-5	0.623009268	;
30-59	18	*	4-9	1-5	0.602787025	;
0-29	19	*	4-9	1-5	0.636505759	;
30-59	19	*	4-9	1-5	0.653953722	;
0-29	20	*	4-9	1-5	0.659929668	;
30-59	20	*	4-9	1-5	0.694386959	;
0-29	21	*	4-9	1-5	0.703399616	;
30-59	21	*	4-9	1-5	0.695249235	;
0-29	22	*	4-9	1-5	0.671979035	;
30-59	22	*	4-9	1-5	0.628872743	;
0-29	23	*	4-9	1-5	0.563973367	;
30-59	23	*	4-9	1-5	0.521376942	;
}


schedule load_shape_C {
	// weekday-summer
0-29	0	*	4-9	1-5	0.466607432	;
30-59	0	*	4-9	1-5	0.432783726	;
0-29	1	*	4-9	1-5	0.416617929	;
30-59	1	*	4-9	1-5	0.415639434	;
0-29	2	*	4-9	1-5	0.403818757	;
30-59	2	*	4-9	1-5	0.404875982	;
0-29	3	*	4-9	1-5	0.392436716	;
30-59	3	*	4-9	1-5	0.38919381	;
0-29	4	*	4-9	1-5	0.398465149	;
30-59	4	*	4-9	1-5	0.39438621	;
0-29	5	*	4-9	1-5	0.40472977	;
30-59	5	*	4-9	1-5	0.415545708	;
0-29	6	*	4-9	1-5	0.42469333	;
30-59	6	*	4-9	1-5	0.44150021	;
0-29	7	*	4-9	1-5	0.449099484	;
30-59	7	*	4-9	1-5	0.464556715	;
0-29	8	*	4-9	1-5	0.496127257	;
30-59	8	*	4-9	1-5	0.510182353	;
0-29	9	*	4-9	1-5	0.522910293	;
30-59	9	*	4-9	1-5	0.535195849	;
0-29	10	*	4-9	1-5	0.569083288	;
30-59	10	*	4-9	1-5	0.607567033	;
0-29	11	*	4-9	1-5	0.623237958	;
30-59	11	*	4-9	1-5	0.610629986	;
0-29	12	*	4-9	1-5	0.630657279	;
30-59	12	*	4-9	1-5	0.626735799	;
0-29	13	*	4-9	1-5	0.630004949	;
30-59	13	*	4-9	1-5	0.621213484	;
0-29	14	*	4-9	1-5	0.611709705	;
30-59	14	*	4-9	1-5	0.606993432	;
0-29	15	*	4-9	1-5	0.59353818	;
30-59	15	*	4-9	1-5	0.571014036	;
0-29	16	*	4-9	1-5	0.579696779	;
30-59	16	*	4-9	1-5	0.594925319	;
0-29	17	*	4-9	1-5	0.611316058	;
30-59	17	*	4-9	1-5	0.611795933	;
0-29	18	*	4-9	1-5	0.61054001	;
30-59	18	*	4-9	1-5	0.617906844	;
0-29	19	*	4-9	1-5	0.617839362	;
30-59	19	*	4-9	1-5	0.60588372	;
0-29	20	*	4-9	1-5	0.617651911	;
30-59	20	*	4-9	1-5	0.669298482	;
0-29	21	*	4-9	1-5	0.659506028	;
30-59	21	*	4-9	1-5	0.646009538	;
0-29	22	*	4-9	1-5	0.589485484	;
30-59	22	*	4-9	1-5	0.558158629	;
0-29	23	*	4-9	1-5	0.518310239	;
30-59	23	*	4-9	1-5	0.483271849	;
}

object load {
	name N_800003816;
	phases ABC;
	nominal_voltage 2523.021;
	constant_power_A_real load_shape_A*8048.06666667;
	constant_power_B_real load_shape_B*8048.06666667;
	constant_power_C_real load_shape_C*8048.06666667;
	constant_power_A_reac load_shape_A*2645.27159075;
	constant_power_B_reac load_shape_B*2645.27159075;
	constant_power_C_reac load_shape_C*2645.27159075;
}

object load {
	name N_800003814;
	phases ABC;
	nominal_voltage 2523.021;
	constant_power_A_real load_shape_A*4037.919;
	constant_power_B_real load_shape_B*4037.919;
	constant_power_C_real load_shape_C*4037.919;
	constant_power_A_reac load_shape_A*1327.1997933;
	constant_power_B_reac load_shape_B*1327.1997933;
	constant_power_C_reac load_shape_C*1327.1997933;
}

object load {
	name N_800041282;
	phases ABC;
	nominal_voltage 2523.021;
	constant_power_A_real load_shape_A*7917.54233333;
	constant_power_B_real load_shape_B*7917.54233333;
	constant_power_C_real load_shape_C*7917.54233333;
	constant_power_A_reac load_shape_A*2602.37031705;
	constant_power_B_reac load_shape_B*2602.37031705;
	constant_power_C_reac load_shape_C*2602.37031705;
}

object load {
	name N_800047076;
	phases B;
	nominal_voltage 2523.021;
	constant_power_A_real load_shape_A*0;
	constant_power_B_real load_shape_B*13196.83;
	constant_power_C_real load_shape_C*0;
	constant_power_A_reac load_shape_A*0;
	constant_power_B_reac load_shape_B*4337.58825975;
	constant_power_C_reac load_shape_C*0;
}

object load {
	name N_800003810;
	phases A;
	nominal_voltage 2523.021;
	constant_power_A_real load_shape_A*35583.119;
	constant_power_B_real load_shape_B*0;
	constant_power_C_real load_shape_C*0;
	constant_power_A_reac load_shape_A*11695.605628;
	constant_power_B_reac load_shape_B*0;
	constant_power_C_reac load_shape_C*0;
}

object load {
	name N_800047075;
	phases B;
	nominal_voltage 2523.021;
	constant_power_A_real load_shape_A*0;
	constant_power_B_real load_shape_B*19803.576;
	constant_power_C_real load_shape_C*0;
	constant_power_A_reac load_shape_A*0;
	constant_power_B_reac load_shape_B*6509.1206569;
	constant_power_C_reac load_shape_C*0;
}

object load {
	name N_800054753;
	phases ABC;
	nominal_voltage 2523.021;
	constant_power_A_real load_shape_A*6255.494;
	constant_power_B_real load_shape_B*6255.494;
	constant_power_C_real load_shape_C*6255.494;
	constant_power_A_reac load_shape_A*3876.80699041;
	constant_power_B_reac load_shape_B*3876.80699041;
	constant_power_C_reac load_shape_C*3876.80699041;
}

object load {
	name N_800003851;
	phases A;
	nominal_voltage 2523.021;
	constant_power_A_real load_shape_A*12871.908;
	constant_power_B_real load_shape_B*0;
	constant_power_C_real load_shape_C*0;
	constant_power_A_reac load_shape_A*4230.79156292;
	constant_power_B_reac load_shape_B*0;
	constant_power_C_reac load_shape_C*0;
}

object load {
	name N_800034662;
	phases A;
	nominal_voltage 2523.021;
	constant_power_A_real load_shape_A*20670.034;
	constant_power_B_real load_shape_B*0;
	constant_power_C_real load_shape_C*0;
	constant_power_A_reac load_shape_A*6793.91162931;
	constant_power_B_reac load_shape_B*0;
	constant_power_C_reac load_shape_C*0;
}

object load {
	name N_800003833;
	phases A;
	nominal_voltage 2523.021;
	constant_power_A_real load_shape_A*15254.669;
	constant_power_B_real load_shape_B*0;
	constant_power_C_real load_shape_C*0;
	constant_power_A_reac load_shape_A*5013.96723006;
	constant_power_B_reac load_shape_B*0;
	constant_power_C_reac load_shape_C*0;
}

object load {
	name N_800003815;
	phases AB;
	nominal_voltage 2523.021;
	constant_power_A_real load_shape_A*3774.093;
	constant_power_B_real load_shape_B*3774.093;
	constant_power_C_real load_shape_C*0;
	constant_power_A_reac load_shape_A*1240.48438057;
	constant_power_B_reac load_shape_B*1240.48438057;
	constant_power_C_reac load_shape_C*0;
}

object load {
	name N_800033634;
	phases AB;
	nominal_voltage 2523.021;
	constant_power_A_real load_shape_A*5736.121;
	constant_power_B_real load_shape_B*5736.121;
	constant_power_C_real load_shape_C*0;
	constant_power_A_reac load_shape_A*2536.46247952;
	constant_power_B_reac load_shape_B*2536.46247952;
	constant_power_C_reac load_shape_C*0;
}

object load {
	name N_800026137;
	phases B;
	nominal_voltage 2523.021;
	constant_power_A_real load_shape_A*0;
	constant_power_B_real load_shape_B*36974.451;
	constant_power_C_real load_shape_C*0;
	constant_power_A_reac load_shape_A*0;
	constant_power_B_reac load_shape_B*12152.9143414;
	constant_power_C_reac load_shape_C*0;
}

object load {
	name N_800026145;
	phases B;
	nominal_voltage 2523.021;
	constant_power_A_real load_shape_A*0;
	constant_power_B_real load_shape_B*25060.646;
	constant_power_C_real load_shape_C*0;
	constant_power_A_reac load_shape_A*0;
	constant_power_B_reac load_shape_B*8237.03600571;
	constant_power_C_reac load_shape_C*0;
}

object load {
	name N_800003828;
	phases A;
	nominal_voltage 2523.021;
	constant_power_A_real load_shape_A*27035.172;
	constant_power_B_real load_shape_B*0;
	constant_power_C_real load_shape_C*0;
	constant_power_A_reac load_shape_A*8886.03131718;
	constant_power_B_reac load_shape_B*0;
	constant_power_C_reac load_shape_C*0;
}

object load {
	name N_800042659;
	phases ABC;
	nominal_voltage 2523.021;
	constant_power_A_real load_shape_A*7334.34933333;
	constant_power_B_real load_shape_B*7334.34933333;
	constant_power_C_real load_shape_C*7334.34933333;
	constant_power_A_reac load_shape_A*2487.47320777;
	constant_power_B_reac load_shape_B*2487.47320777;
	constant_power_C_reac load_shape_C*2487.47320777;
}

object load {
	name N_800044234;
	phases ABC;
	nominal_voltage 2523.021;
	constant_power_A_real load_shape_A*7759.247;
	constant_power_B_real load_shape_B*7759.247;
	constant_power_C_real load_shape_C*7759.247;
	constant_power_A_reac load_shape_A*2550.34115706;
	constant_power_B_reac load_shape_B*2550.34115706;
	constant_power_C_reac load_shape_C*2550.34115706;
}

object load {
	name N_800018863;
	phases ABC;
	nominal_voltage 2523.021;
	constant_power_A_real load_shape_A*26000.0;
	constant_power_B_real load_shape_B*26000.0;
	constant_power_C_real load_shape_C*26000.0;
	constant_power_A_reac load_shape_A*16113.3527985;
	constant_power_B_reac load_shape_B*16113.3527985;
	constant_power_C_reac load_shape_C*16113.3527985;
}

object load {
	name N_800042675;
	phases ABC;
	nominal_voltage 2523.021;
	constant_power_A_real load_shape_A*2160.592;
	constant_power_B_real load_shape_B*2160.592;
	constant_power_C_real load_shape_C*2160.592;
	constant_power_A_reac load_shape_A*710.152248177;
	constant_power_B_reac load_shape_B*710.152248177;
	constant_power_C_reac load_shape_C*710.152248177;
}

object load {
	name N_800042674;
	phases ABC;
	nominal_voltage 2523.021;
	constant_power_A_real load_shape_A*12024.889;
	constant_power_B_real load_shape_B*12024.889;
	constant_power_C_real load_shape_C*12024.889;
	constant_power_A_reac load_shape_A*3952.38988084;
	constant_power_B_reac load_shape_B*3952.38988084;
	constant_power_C_reac load_shape_C*3952.38988084;
}

object load {
	name N_800042677;
	phases ABC;
	nominal_voltage 2523.021;
	constant_power_A_real load_shape_A*7703.705;
	constant_power_B_real load_shape_B*7703.705;
	constant_power_C_real load_shape_C*7703.705;
	constant_power_A_reac load_shape_A*2532.08538449;
	constant_power_B_reac load_shape_B*2532.08538449;
	constant_power_C_reac load_shape_C*2532.08538449;
}

object load {
	name N_800042676;
	phases ABC;
	nominal_voltage 2523.021;
	constant_power_A_real load_shape_A*3471.38833333;
	constant_power_B_real load_shape_B*3471.38833333;
	constant_power_C_real load_shape_C*3471.38833333;
	constant_power_A_reac load_shape_A*1140.99016807;
	constant_power_B_reac load_shape_B*1140.99016807;
	constant_power_C_reac load_shape_C*1140.99016807;
}

object load {
	name N_800047537;
	phases ABC;
	nominal_voltage 2523.021;
	constant_power_A_real load_shape_A*6895.56566667;
	constant_power_B_real load_shape_B*6895.56566667;
	constant_power_C_real load_shape_C*6895.56566667;
	constant_power_A_reac load_shape_A*2266.46283085;
	constant_power_B_reac load_shape_B*2266.46283085;
	constant_power_C_reac load_shape_C*2266.46283085;
}

object load {
	name N_800042673;
	phases ABC;
	nominal_voltage 2523.021;
	constant_power_A_real load_shape_A*5165.42566667;
	constant_power_B_real load_shape_B*5165.42566667;
	constant_power_C_real load_shape_C*5165.42566667;
	constant_power_A_reac load_shape_A*1761.64950278;
	constant_power_B_reac load_shape_B*1761.64950278;
	constant_power_C_reac load_shape_C*1761.64950278;
}

object load {
	name N_800042672;
	phases ABC;
	nominal_voltage 2523.021;
	constant_power_A_real load_shape_A*7975.86166667;
	constant_power_B_real load_shape_B*7975.86166667;
	constant_power_C_real load_shape_C*7975.86166667;
	constant_power_A_reac load_shape_A*2621.53895494;
	constant_power_B_reac load_shape_B*2621.53895494;
	constant_power_C_reac load_shape_C*2621.53895494;
}

object load {
	name N_800109225;
	phases A;
	nominal_voltage 2523.021;
	constant_power_A_real load_shape_A*19861.895;
	constant_power_B_real load_shape_B*0;
	constant_power_C_real load_shape_C*0;
	constant_power_A_reac load_shape_A*6528.28918523;
	constant_power_B_reac load_shape_B*0;
	constant_power_C_reac load_shape_C*0;
}

object load {
	name N_800010252;
	phases ABC;
	nominal_voltage 2523.021;
	constant_power_A_real load_shape_A*4865.49766667;
	constant_power_B_real load_shape_B*4865.49766667;
	constant_power_C_real load_shape_C*4865.49766667;
	constant_power_A_reac load_shape_A*2004.98153452;
	constant_power_B_reac load_shape_B*2004.98153452;
	constant_power_C_reac load_shape_C*2004.98153452;
}

object load {
	name N_800052747;
	phases ABC;
	nominal_voltage 2523.021;
	constant_power_A_real load_shape_A*18000.0;
	constant_power_B_real load_shape_B*18000.0;
	constant_power_C_real load_shape_C*18000.0;
	constant_power_A_reac load_shape_A*11155.3980913;
	constant_power_B_reac load_shape_B*11155.3980913;
	constant_power_C_reac load_shape_C*11155.3980913;
}

object load {
	name N_800010259;
	phases ABC;
	nominal_voltage 2523.021;
	constant_power_A_real load_shape_A*3771.31666667;
	constant_power_B_real load_shape_B*3771.31666667;
	constant_power_C_real load_shape_C*3771.31666667;
	constant_power_A_reac load_shape_A*1313.12780991;
	constant_power_B_reac load_shape_B*1313.12780991;
	constant_power_C_reac load_shape_C*1313.12780991;
}

object load {
	name N_800003831;
	phases A;
	nominal_voltage 2523.021;
	constant_power_A_real load_shape_A*13813.348;
	constant_power_B_real load_shape_B*0;
	constant_power_C_real load_shape_C*0;
	constant_power_A_reac load_shape_A*4758.47071098;
	constant_power_B_reac load_shape_B*0;
	constant_power_C_reac load_shape_C*0;
}

object load {
	name N_800111512;
	phases ABC;
	nominal_voltage 2523.021;
	constant_power_A_real load_shape_A*6392.90866667;
	constant_power_B_real load_shape_B*6392.90866667;
	constant_power_C_real load_shape_C*6392.90866667;
	constant_power_A_reac load_shape_A*2101.24746459;
	constant_power_B_reac load_shape_B*2101.24746459;
	constant_power_C_reac load_shape_C*2101.24746459;
}

object load {
	name N_800053805;
	phases ABC;
	nominal_voltage 2523.021;
	constant_power_A_real load_shape_A*5706.96233333;
	constant_power_B_real load_shape_B*5706.96233333;
	constant_power_C_real load_shape_C*5706.96233333;
	constant_power_A_reac load_shape_A*1875.78780782;
	constant_power_B_reac load_shape_B*1875.78780782;
	constant_power_C_real load_shape_C*1875.78780782;
}

object load {
	name N_800003803;
	phases A;
	nominal_voltage 2523.021;
	constant_power_A_real load_shape_A*8139.711;
	constant_power_B_real load_shape_B*0;
	constant_power_C_real load_shape_C*0;
	constant_power_A_reac load_shape_A*2675.39362645;
	constant_power_B_reac load_shape_B*+0;
	constant_power_C_real load_shape_C*+0;
}

object load {
	name N_800026555;
	phases ABC;
	nominal_voltage 2523.021;
	constant_power_A_real load_shape_A*9147.80233333;
	constant_power_B_real load_shape_B*9147.80233333;
	constant_power_C_real load_shape_C*9147.80233333;
	constant_power_A_reac load_shape_A*3006.73722428;
	constant_power_B_reac load_shape_B*3006.73722428;
	constant_power_C_reac load_shape_C*3006.73722428;
}

object load {
	name N_800013464;
	phases C;
	nominal_voltage 2523.021;
	constant_power_A_real load_shape_A*0;
	constant_power_B_real load_shape_B*0;
	constant_power_C_real load_shape_C*29634.548;
	constant_power_A_reac load_shape_A*0;
	constant_power_B_reac load_shape_B*0;
	constant_power_C_reac load_shape_C*9740.40489176;
}

object load {
	name N_800003829;
	phases AB;
	nominal_voltage 2523.021;
	constant_power_A_real load_shape_A*16281.104;
	constant_power_B_real load_shape_B*16281.104;
	constant_power_C_real load_shape_C*0.0;
	constant_power_A_reac load_shape_A*9864.60448341;
	constant_power_B_reac load_shape_B*9864.60448341;
	constant_power_C_reac load_shape_C*0.0;
}

object load {
	name N_800010293;
	phases ABC;
	nominal_voltage 2523.021;
	constant_power_A_real load_shape_A*9575.47733333;
	constant_power_B_real load_shape_B*9575.47733333;
	constant_power_C_real load_shape_C*9575.47733333;
	constant_power_A_reac load_shape_A*3147.30719897;
	constant_power_B_reac load_shape_B*3147.30719897;
	constant_power_C_reac load_shape_C*3147.30719897;
}

object load {
	name N_800003808;
	phases A;
	nominal_voltage 2523.021;
	constant_power_A_real load_shape_A*22552.915;
	constant_power_B_real load_shape_B*0;
	constant_power_C_real load_shape_C*0;
	constant_power_A_reac load_shape_A*7412.78468595;
	constant_power_B_reac load_shape_B*0;
	constant_power_C_reac load_shape_C*0;
}

object load {
	name N_800013465;
	phases C;
	nominal_voltage 2523.021;
	constant_power_A_real load_shape_A*0;
	constant_power_B_real load_shape_B*0;
	constant_power_C_real load_shape_C*35274.859;
	constant_power_A_reac load_shape_A*0;
	constant_power_B_reac load_shape_B*0;
	constant_power_C_reac load_shape_C*11594.2854657;
}

object load {
	name N_800003839;
	phases AB;
	nominal_voltage 2523.021;
	constant_power_A_real load_shape_A*11580.551;
	constant_power_B_real load_shape_B*11580.551;
	constant_power_C_real load_shape_C*0;
	constant_power_A_reac load_shape_A*3806.34304291;
	constant_power_B_reac load_shape_B*3806.34304291;
	constant_power_C_reac load_shape_C*0;
}

object load {
	name N_800003821;
	phases AB;
	nominal_voltage 2523.021;
	constant_power_A_real load_shape_A*14357.167;
	constant_power_B_real load_shape_B*14357.167;
	constant_power_C_real load_shape_C*0.0;
	constant_power_A_reac load_shape_A*8251.53192793;
	constant_power_B_reac load_shape_B*8251.53192793;
	constant_power_C_reac load_shape_C*0.0;
}

object load {
	name N_800003820;
	phases AB;
	nominal_voltage 2523.021;
	constant_power_A_real load_shape_A*12942.723;
	constant_power_B_real load_shape_B*12942.723;
	constant_power_C_real load_shape_C*0;
	constant_power_A_reac load_shape_A*8021.17930277;
	constant_power_B_reac load_shape_B*8021.17930277;
	constant_power_C_reac load_shape_C*0;
}

object load {
	name N_800003845;
	phases A;
	nominal_voltage 2523.021;
	constant_power_A_real load_shape_A*22952.819;
	constant_power_B_real load_shape_B*0;
	constant_power_C_real load_shape_C*0;
	constant_power_A_reac load_shape_A*7544.22677435;
	constant_power_B_reac load_shape_B*0;
	constant_power_C_reac load_shape_C*0;
}

object load {
	name N_800041281;
	phases ABC;
	nominal_voltage 2523.021;
	constant_power_A_real load_shape_A*6017.99866667;
	constant_power_B_real load_shape_B*6017.99866667;
	constant_power_C_real load_shape_C*6017.99866667;
	constant_power_A_reac load_shape_A*1978.02050672;
	constant_power_B_reac load_shape_B*1978.02050672;
	constant_power_C_reac load_shape_C*1978.02050672;
}

object load {
	name N_800042661;
	phases AB;
	nominal_voltage 2523.021;
	constant_power_A_real load_shape_A*16287.754;
	constant_power_B_real load_shape_B*16287.754;
	constant_power_C_real load_shape_C*0;
	constant_power_A_reac load_shape_A*5353.52584886;
	constant_power_B_reac load_shape_B*5353.52584886;
	constant_power_C_reac load_shape_C*0;
}

object load {
	name N_800110102;
	phases ABC;
	nominal_voltage 2523.021;
	constant_power_A_real load_shape_A*0.0;
	constant_power_B_real load_shape_B*0.0;
	constant_power_C_real load_shape_C*0.0;
	constant_power_A_reac load_shape_A*0.0;
	constant_power_B_reac load_shape_B*0.0;
	constant_power_C_reac load_shape_C*0.0;
}

object load {
	name N_800045760;
	phases C;
	nominal_voltage 2523.021;
	constant_power_A_real load_shape_A*0;
	constant_power_B_real load_shape_B*0;
	constant_power_C_real load_shape_C*12496.998;
	constant_power_A_reac load_shape_A*0;
	constant_power_B_reac load_shape_B*0;
	constant_power_C_reac load_shape_C*4107.56460505;
}

object load {
	name N_800003842;
	phases ABC;
	nominal_voltage 2523.021;
	constant_power_A_real load_shape_A*17531.8996667;
	constant_power_B_real load_shape_B*17531.8996667;
	constant_power_C_real load_shape_C*17531.8996667;
	constant_power_A_reac load_shape_A*5819.84655551;
	constant_power_B_reac load_shape_B*5819.84655551;
	constant_power_C_reac load_shape_C*5819.84655551;
}

object load {
	name N_800025566;
	phases ABC;
	nominal_voltage 2523.021;
	constant_power_A_real load_shape_A*4734.97366667;
	constant_power_B_real load_shape_B*4734.97366667;
	constant_power_C_real load_shape_C*4734.97366667;
	constant_power_A_reac load_shape_A*1556.31058267;
	constant_power_B_reac load_shape_B*1556.31058267;
	constant_power_C_reac load_shape_C*1556.31058267;
}

object load {
	name N_800042666;
	phases AB;
	nominal_voltage 2523.021;
	constant_power_A_real load_shape_A*9597.694;
	constant_power_B_real load_shape_B*9597.694;
	constant_power_C_real load_shape_C*0;
	constant_power_A_reac load_shape_A*3154.60946417;
	constant_power_B_reac load_shape_B*3154.60946417;
	constant_power_C_reac load_shape_C*0;
}

object load {
	name N_800025891;
	phases ABC;
	nominal_voltage 2523.021;
	constant_power_A_real load_shape_A*9333.33333333;
	constant_power_B_real load_shape_B*9333.33333333;
	constant_power_C_real load_shape_C*9333.33333333;
	constant_power_A_reac load_shape_A*5784.28049176;
	constant_power_B_reac load_shape_B*5784.28049176;
	constant_power_C_reac load_shape_C*5784.28049176;
}

object load {
	name N_800044233;
	phases ABC;
	nominal_voltage 2523.021;
	constant_power_A_real load_shape_A*1116.39833333;
	constant_power_B_real load_shape_B*1116.39833333;
	constant_power_C_real load_shape_C*1116.39833333;
	constant_power_A_reac load_shape_A*366.942387215;
	constant_power_B_reac load_shape_B*366.942387215;
	constant_power_C_reac load_shape_C*366.942387215;
}

object load {
	name N_800044232;
	phases ABC;
	nominal_voltage 2523.021;
	constant_power_A_real load_shape_A*3476.94266667;
	constant_power_B_real load_shape_B*3476.94266667;
	constant_power_C_real load_shape_C*3476.94266667;
	constant_power_A_reac load_shape_A*1142.81578915;
	constant_power_B_reac load_shape_B*1142.81578915;
	constant_power_C_reac load_shape_C*1142.81578915;
}

object load {
	name N_800044231;
	phases C;
	nominal_voltage 2523.021;
	constant_power_A_real load_shape_A*0;
	constant_power_B_real load_shape_B*0;
	constant_power_C_real load_shape_C*6365.138;
	constant_power_A_reac load_shape_A*0;
	constant_power_B_reac load_shape_B*0;
	constant_power_C_reac load_shape_C*2092.11968787;
}

object load {
	name N_800044230;
	phases C;
	nominal_voltage 2523.021;
	constant_power_A_real load_shape_A*0;
	constant_power_B_real load_shape_B*0;
	constant_power_C_real load_shape_C*12030.443;
	constant_power_A_reac load_shape_A*0;
	constant_power_B_reac load_shape_B*0;
	constant_power_C_reac load_shape_C*3954.21539236;
}

object load {
	name N_800042662;
	phases ABC;
	nominal_voltage 2523.021;
	constant_power_A_real load_shape_A*380.464;
	constant_power_B_real load_shape_B*380.464;
	constant_power_C_real load_shape_C*380.464;
	constant_power_A_reac load_shape_A*235.790409966;
	constant_power_B_reac load_shape_B*235.790409966;
	constant_power_C_reac load_shape_C*235.790409966;
}

object load {
	name N_800042663;
	phases ABC;
	nominal_voltage 2523.021;
	constant_power_A_real load_shape_A*9403.297;
	constant_power_B_real load_shape_B*9403.297;
	constant_power_C_real load_shape_C*9403.297;
	constant_power_A_reac load_shape_A*4993.46775596;
	constant_power_B_reac load_shape_B*4993.46775596;
	constant_power_C_reac load_shape_C*4993.46775596;
}

object load {
	name N_800042660;
	phases AB;
	nominal_voltage 2523.021;
	constant_power_A_real load_shape_A*4632.221;
	constant_power_B_real load_shape_B*4632.221;
	constant_power_C_real load_shape_C*0;
	constant_power_A_reac load_shape_A*1522.53741438;
	constant_power_B_reac load_shape_B*1522.53741438;
	constant_power_C_reac load_shape_C*0;
}

object load {
	name N_800048902;
	phases ABC;
	nominal_voltage 2523.021;
	constant_power_A_real load_shape_A*16384.9526667;
	constant_power_B_real load_shape_B*16384.9526667;
	constant_power_C_real load_shape_C*16384.9526667;
	constant_power_A_reac load_shape_A*5400.83129885;
	constant_power_B_reac load_shape_B*5400.83129885;
	constant_power_C_reac load_shape_C*5400.83129885;
}

object load {
	name N_800026141;
	phases C;
	nominal_voltage 2523.021;
	constant_power_A_real load_shape_A*0;
	constant_power_B_real load_shape_B*0;
	constant_power_C_real load_shape_C*6964.993;
	constant_power_A_reac load_shape_A*0;
	constant_power_B_reac load_shape_B*0;
	constant_power_C_reac load_shape_C*2289.28249178;
}

object load {
	name N_800042667;
	phases AB;
	nominal_voltage 2523.021;
	constant_power_A_real load_shape_A*8960.347;
	constant_power_B_real load_shape_B*8960.347;
	constant_power_C_real load_shape_C*0;
	constant_power_A_reac load_shape_A*2945.12363579;
	constant_power_B_reac load_shape_B*+2945.12363579;
	constant_power_C_reac load_shape_C*0;
}

object load {
	name N_800042664;
	phases AB;
	nominal_voltage 2523.021;
	constant_power_A_real load_shape_A*13567.574;
	constant_power_B_real load_shape_B*13567.574;
	constant_power_C_real load_shape_C*0;
	constant_power_A_reac load_shape_A*4459.44591964;
	constant_power_B_reac load_shape_B*4459.44591964;
	constant_power_C_reac load_shape_C*0;
}

object load {
	name N_800042665;
	phases AB;
	nominal_voltage 2523.021;
	constant_power_A_real load_shape_A*17208.366;
	constant_power_B_real load_shape_B*17208.366;
	constant_power_C_real load_shape_C*0;
	constant_power_A_reac load_shape_A*5835.56054423;
	constant_power_B_reac load_shape_B*5835.56054423;
	constant_power_C_reac load_shape_C*0;
}

object load {
	name N_800042668;
	phases ABC;
	nominal_voltage 2523.021;
	constant_power_A_real load_shape_A*10775.189;
	constant_power_B_real load_shape_B*10775.189;
	constant_power_C_real load_shape_C*10775.189;
	constant_power_A_reac load_shape_A*3566.6908271;
	constant_power_B_reac load_shape_B*3566.6908271;
	constant_power_C_reac load_shape_C*3566.6908271;
}

object load {
	name N_800003794;
	phases A;
	nominal_voltage 2523.021;
	constant_power_A_real load_shape_A*3674.117;
	constant_power_B_real load_shape_B*0;
	constant_power_C_real load_shape_C*0;
	constant_power_A_reac load_shape_A*1207.62385847;
	constant_power_B_reac load_shape_B*0;
	constant_power_C_reac load_shape_C*0;
}

object load {
	name N_800054496;
	phases ABC;
	nominal_voltage 2523.021;
	constant_power_A_real load_shape_A*0.0;
	constant_power_B_real load_shape_B*0.0;
	constant_power_C_real load_shape_C*0.0;
	constant_power_A_reac load_shape_A*0.0;
	constant_power_B_reac load_shape_B*0.0;
	constant_power_C_reac load_shape_C*0.0;
}

object load {
	name N_800013463;
	phases C;
	nominal_voltage 2523.021;
	constant_power_A_real load_shape_A*0;
	constant_power_B_real load_shape_B*0;
	constant_power_C_real load_shape_C*57127.943;
	constant_power_A_reac load_shape_A*0;
	constant_power_B_reac load_shape_B*0;
	constant_power_C_reac load_shape_C*18777.0468257;
}

object load {
	name N_800041280;
	phases A;
	nominal_voltage 2523.021;
	constant_power_A_real load_shape_A*1966.194;
	constant_power_B_real load_shape_B*0;
	constant_power_C_real load_shape_C*0;
	constant_power_A_reac load_shape_A*646.256715498;
	constant_power_B_reac load_shape_B*0;
	constant_power_C_reac load_shape_C*0;
}

object load {
	name N_800013396;
	phases A;
	nominal_voltage 2523.021;
	constant_power_A_real load_shape_A*26501.967;
	constant_power_B_real load_shape_B*0;
	constant_power_C_real load_shape_C*0;
	constant_power_A_reac load_shape_A*8710.77530887;
	constant_power_B_reac load_shape_B*0;
	constant_power_C_reac load_shape_C*0;
}

object load {
	name N_800013397;
	phases A;
	nominal_voltage 2523.021;
	constant_power_A_real load_shape_A*18245.617;
	constant_power_B_real load_shape_B*0;
	constant_power_C_real load_shape_C*0;
	constant_power_A_reac load_shape_A*5997.04429708;
	constant_power_B_reac load_shape_B*0;
	constant_power_C_reac load_shape_C*0;
}

object load {
	name N_800047538;
	phases ABC;
	nominal_voltage 2523.021;
	constant_power_A_real load_shape_A*2968.73133333;
	constant_power_B_real load_shape_B*2968.73133333;
	constant_power_C_real load_shape_C*2968.73133333;
	constant_power_A_reac load_shape_A*975.774801813;
	constant_power_B_reac load_shape_B*975.774801813;
	constant_power_C_reac load_shape_C*975.774801813;
}

object load {
	name N_800052153;
	phases ABC;
	nominal_voltage 2523.021;
	constant_power_A_real load_shape_A*4979.35966667;
	constant_power_B_real load_shape_B*4979.35966667;
	constant_power_C_real load_shape_C*4979.35966667;
	constant_power_A_reac load_shape_A*1720.70029594;
	constant_power_B_reac load_shape_B*1720.70029594;
	constant_power_C_reac load_shape_C*1720.70029594;
}

object load {
	name N_800028289;
	phases A;
	nominal_voltage 2523.021;
	constant_power_A_real load_shape_A*21086.601;
	constant_power_B_real load_shape_B*0;
	constant_power_C_real load_shape_C*0;
	constant_power_A_reac load_shape_A*6930.83058095;
	constant_power_B_reac load_shape_B*0;
	constant_power_C_reac load_shape_C*0;
}

